Version 4
SHEET 1 880 680
WIRE 320 0 304 0
WIRE 432 0 384 0
WIRE 416 80 384 80
WIRE 304 96 304 0
WIRE 304 96 176 96
WIRE 176 160 176 96
WIRE 176 160 112 160
WIRE 192 160 176 160
WIRE 320 160 320 80
WIRE 320 160 288 160
WIRE 416 160 416 80
WIRE 416 160 384 160
WIRE 544 160 416 160
WIRE 176 192 176 160
WIRE 240 208 208 208
WIRE 272 208 240 208
WIRE 304 240 304 96
WIRE 320 240 304 240
WIRE 432 240 432 0
WIRE 432 240 384 240
WIRE 544 240 544 160
WIRE 432 256 432 240
WIRE 112 288 112 160
WIRE 240 288 112 288
WIRE 272 336 272 208
WIRE 272 416 272 336
WIRE 368 416 272 416
WIRE 384 416 368 416
FLAG 176 272 0
FLAG 432 432 0
FLAG 544 320 0
FLAG 352 336 0
FLAG 368 496 0
SYMBOL voltage 176 176 R0
WINDOW 0 -33 54 Left 2
WINDOW 3 -67 67 Left 0
WINDOW 123 0 0 Left 0
WINDOW 39 0 0 Left 0
SYMATTR InstName V_PWM
SYMATTR Value PULSE(0 5 0 1n 1n 19m 20m)
SYMBOL voltage 256 336 R270
WINDOW 0 -24 55 Left 2
WINDOW 3 -4 71 Left 2
WINDOW 123 0 0 Left 0
WINDOW 39 0 0 Left 0
SYMATTR InstName V_DIR
SYMATTR Value 5
SYMBOL res 416 240 R0
SYMATTR InstName Left
SYMATTR Value 250
SYMBOL nmos 384 336 R0
WINDOW 0 23 30 Left 0
WINDOW 3 23 38 Left 0
SYMATTR InstName M1
SYMATTR Value IRFZ44N
SYMBOL pmos 288 208 M270
WINDOW 0 0 51 VLeft 2
WINDOW 3 57 73 VLeft 2
SYMATTR InstName M2
SYMATTR Value IRF7233
SYMBOL res 528 224 R0
SYMATTR InstName Right
SYMATTR Value 250
SYMBOL LED 320 16 R270
WINDOW 0 16 9 VTop 2
WINDOW 3 17 12 VBottom 2
SYMATTR InstName D1
SYMBOL LED 320 96 R270
WINDOW 0 16 9 VTop 2
WINDOW 3 17 12 VBottom 2
SYMATTR InstName D2
SYMBOL LED 320 176 R270
WINDOW 0 16 9 VTop 2
WINDOW 3 17 12 VBottom 2
SYMATTR InstName D3
SYMBOL LED 320 256 R270
WINDOW 0 16 9 VTop 2
WINDOW 3 17 12 VBottom 2
SYMATTR InstName D4
SYMBOL res 352 400 R0
SYMATTR InstName R1
SYMATTR Value 10k
SYMBOL res 256 304 R180
WINDOW 0 36 76 Left 2
WINDOW 3 36 40 Left 2
SYMATTR InstName R2
SYMATTR Value 10k
TEXT 152 72 Left 2 !.tran 0 10 0.1n 1m
