Version 4
SHEET 1 880 680
WIRE -128 -80 -128 -96
WIRE -96 0 -128 0
WIRE 64 0 48 0
WIRE 160 0 64 0
WIRE 64 16 64 0
WIRE -192 80 -272 80
WIRE -176 80 -192 80
WIRE 272 80 240 80
WIRE -80 96 -128 96
WIRE 64 96 64 80
WIRE 64 96 -80 96
WIRE 160 96 160 80
WIRE 160 96 64 96
WIRE 272 96 272 80
WIRE 272 176 272 160
WIRE 272 176 240 176
FLAG -272 160 0
FLAG -192 160 0
FLAG -80 96 0
FLAG 32 -96 0
FLAG 192 160 0
SYMBOL nmos 192 80 R0
WINDOW 0 56 32 Left 0
WINDOW 3 56 72 Left 0
SYMATTR InstName M1
SYMATTR Value IRFZ44N
SYMBOL diode 288 160 R180
WINDOW 0 24 64 Left 0
WINDOW 3 24 0 Left 0
SYMATTR InstName D1
SYMATTR Value 1N4148
SYMBOL voltage -272 64 R0
WINDOW 3 -111 123 Left 2
WINDOW 123 0 0 Left 0
WINDOW 39 0 0 Left 0
SYMATTR InstName V1
SYMATTR Value PULSE(0 12 0 0 0 2m 4m)
SYMBOL nmos -176 0 R0
WINDOW 0 56 32 Left 0
WINDOW 3 56 72 Left 0
SYMATTR InstName M2
SYMATTR Value IRFZ44N
SYMBOL res -208 64 R0
SYMATTR InstName R1
SYMATTR Value 22k
SYMBOL voltage -64 -96 R270
WINDOW 0 32 56 VTop 2
WINDOW 3 -32 56 VBottom 2
WINDOW 123 0 0 Left 0
WINDOW 39 0 0 Left 0
SYMATTR InstName V2
SYMATTR Value 30V
SYMBOL cap 48 16 R0
SYMATTR InstName C1
SYMATTR Value 1m
SYMBOL res 144 -16 R0
SYMATTR InstName R2
SYMATTR Value 100k
SYMBOL diode -16 16 R270
WINDOW 0 32 32 VTop 2
WINDOW 3 0 32 VBottom 2
SYMATTR InstName D2
SYMATTR Value 1N4148
SYMBOL ind -144 -96 R0
SYMATTR InstName L2
SYMATTR Value 100mH
SYMATTR SpiceLine Rser=1
SYMBOL res -32 -112 R90
WINDOW 0 0 56 VBottom 2
WINDOW 3 32 56 VTop 2
SYMATTR InstName R3
SYMATTR Value 300
SYMBOL res 0 -16 R90
WINDOW 0 0 56 VBottom 2
WINDOW 3 32 56 VTop 2
SYMATTR InstName R4
SYMATTR Value 1k
TEXT -384 204 Left 2 !.tran 0 10 0 10m startup
