Version 4
SHEET 1 880 680
WIRE -208 0 -304 0
WIRE -64 0 -128 0
WIRE -16 0 -64 0
WIRE 64 0 48 0
WIRE 160 0 64 0
WIRE 64 16 64 0
WIRE -304 96 -304 80
WIRE -64 96 -304 96
WIRE 64 96 64 80
WIRE 64 96 -64 96
WIRE 160 96 160 80
WIRE 160 96 64 96
WIRE 64 112 64 96
FLAG 64 112 0
FLAG -112 160 0
SYMBOL voltage -112 64 R0
WINDOW 3 -111 123 Left 2
WINDOW 123 0 0 Left 0
WINDOW 39 0 0 Left 0
WINDOW 0 -7 58 Left 2
SYMATTR Value PULSE(0 12 0.1n 0.1n 0.1n 10u 20u)
SYMATTR InstName V1
SYMBOL nmos -112 0 R0
WINDOW 0 56 32 Left 0
WINDOW 3 56 72 Left 0
SYMATTR InstName M2
SYMATTR Value IRFZ44N
SYMBOL res -128 64 R0
WINDOW 0 8 43 Left 2
WINDOW 3 5 77 Left 2
SYMATTR InstName R1
SYMATTR Value 22k
SYMBOL voltage -304 -16 R0
WINDOW 0 0 55 Top 2
WINDOW 3 1 57 Bottom 2
WINDOW 123 0 0 Left 0
WINDOW 39 0 0 Left 0
SYMATTR InstName V2
SYMATTR Value 12
SYMBOL cap 48 16 R0
SYMATTR InstName C1
SYMATTR Value 10u
SYMBOL res 144 -16 R0
SYMATTR InstName R2
SYMATTR Value 10k
SYMBOL diode -16 16 R270
WINDOW 0 32 32 VTop 2
WINDOW 3 0 32 VBottom 2
SYMATTR InstName D2
SYMATTR Value 1N4148
SYMBOL ind -112 -16 R90
WINDOW 0 5 56 VBottom 2
WINDOW 3 32 56 VTop 2
SYMATTR InstName L2
SYMATTR Value 10mH
SYMATTR SpiceLine Rser=1
SYMBOL res -192 -80 R90
WINDOW 0 0 56 VBottom 2
WINDOW 3 31 50 VTop 2
SYMATTR InstName R3
SYMATTR Value 500
TEXT -216 208 Left 2 !.tran 0 5 0 10m startup
